Circuit: * Y:\click-clock-board\psu_simulations\sine_to_square\ltspice\sine_to_square.asc

WARNING: Less than two connections to node NC_01.  This node is used by V2.
Direct Newton iteration failed to find .op point.  (Use ".option noopiter" to skip.)
Starting Gmin stepping
Gmin = 10
Gmin = 1.07374
Gmin = 0.115292
Gmin = 0.0123794
Gmin = 0.00132923
Gmin = 0.000142725
Gmin = 1.5325e-005
Gmin = 1.6455e-006
Gmin = 1.76685e-007
Gmin = 1.89714e-008
Gmin = 2.03704e-009
Gmin = 2.18725e-010
Gmin = 2.34854e-011
Gmin = 2.52173e-012
Gmin = 2.70769e-013
Gmin = 0
Gmin stepping succeeded in finding the operating point.

Heightened Def Con from 0.00687992 to 0.00687992
Heightened Def Con from 0.0235196 to 0.0235196
Heightened Def Con from 0.0402138 to 0.0402138

Date: Fri Oct 20 01:29:56 2017
Total elapsed time: 0.108 seconds.

tnom = 27
temp = 27
method = modified trap
totiter = 6136
traniter = 5706
tranpoints = 1947
accept = 1637
rejected = 313
matrix size = 27
fillins = 10
solver = Normal
Matrix Compiler1: 1.88 KB object code size  0.6/0.4/[0.2]
Matrix Compiler2: off  [0.3]/0.4/0.4

